notebook_tutorials/synthetic_net_opendss/master_sample_13.dss
clear
new circuit.synthetic_net basekv=157.6864406779661 pu=1.0 phases=3
edit Vsource.source bus1=bus_68.1.2.3

!---------------- LINES ----------------

new linecode.LCode_0 nphases=1 rmatrix=[1.042375] xmatrix=[1.358606] units=km
new line.line_0 bus1=bus_0.1 bus2=bus_1.1 linecode=LCode_0 length=1.0 units=km
new linecode.LCode_1 nphases=1 rmatrix=[0.843313] xmatrix=[1.398594] units=km
new line.line_1 bus1=bus_0.1 bus2=bus_2.1 linecode=LCode_1 length=1.0 units=km
new linecode.LCode_2 nphases=1 rmatrix=[0.568421] xmatrix=[1.460208] units=km
new line.line_2 bus1=bus_3.1 bus2=bus_4.1 linecode=LCode_2 length=1.0 units=km
new linecode.LCode_3 nphases=1 rmatrix=[0.708121] xmatrix=[1.269091] units=km
new line.line_3 bus1=bus_2.1 bus2=bus_4.1 linecode=LCode_3 length=1.0 units=km
new linecode.LCode_4 nphases=1 rmatrix=[0.541397] xmatrix=[1.303308] units=km
new line.line_4 bus1=bus_4.1 bus2=bus_5.1 linecode=LCode_4 length=1.0 units=km
new linecode.LCode_5 nphases=1 rmatrix=[0.646178] xmatrix=[1.266211] units=km
new line.line_5 bus1=bus_5.1 bus2=bus_6.1 linecode=LCode_5 length=1.0 units=km
new linecode.LCode_6 nphases=1 rmatrix=[0.359538] xmatrix=[1.319834] units=km
new line.line_6 bus1=bus_7.1 bus2=bus_8.1 linecode=LCode_6 length=1.0 units=km
new linecode.LCode_7 nphases=1 rmatrix=[1.075387] xmatrix=[1.493275] units=km
new line.line_7 bus1=bus_8.1 bus2=bus_9.1 linecode=LCode_7 length=1.0 units=km
new linecode.LCode_8 nphases=1 rmatrix=[0.801152] xmatrix=[1.544993] units=km
new line.line_8 bus1=bus_3.1 bus2=bus_10.1 linecode=LCode_8 length=1.0 units=km
new linecode.LCode_9 nphases=1 rmatrix=[1.097043] xmatrix=[1.242115] units=km
new line.line_9 bus1=bus_4.1 bus2=bus_10.1 linecode=LCode_9 length=1.0 units=km
new linecode.LCode_10 nphases=1 rmatrix=[0.972254] xmatrix=[1.242115] units=km
new line.line_10 bus1=bus_10.1 bus2=bus_11.1 linecode=LCode_10 length=1.0 units=km
new linecode.LCode_11 nphases=1 rmatrix=[0.705457] xmatrix=[1.242115] units=km
new line.line_11 bus1=bus_1.1 bus2=bus_11.1 linecode=LCode_11 length=1.0 units=km
new linecode.LCode_12 nphases=1 rmatrix=[1.053682] xmatrix=[1.261073] units=km
new line.line_12 bus1=bus_2.1 bus2=bus_11.1 linecode=LCode_12 length=1.0 units=km
new linecode.LCode_13 nphases=1 rmatrix=[0.728481] xmatrix=[1.722251] units=km
new line.line_13 bus1=bus_6.1 bus2=bus_11.1 linecode=LCode_13 length=1.0 units=km
new linecode.LCode_16 nphases=2 rmatrix=[0.645898 | 0.059160 0.645898] xmatrix=[1.524569 | 1.024695 1.524569] units=km
new line.line_16 bus1=bus_12.2.3 bus2=bus_14.2.3 linecode=LCode_16 length=1.0 units=km
new linecode.LCode_17 nphases=2 rmatrix=[0.564827 | 0.059160 0.564827] xmatrix=[1.247518 | 1.024695 1.247518] units=km
new line.line_17 bus1=bus_13.2.3 bus2=bus_14.2.3 linecode=LCode_17 length=1.0 units=km
new linecode.LCode_18 nphases=1 rmatrix=[0.500980] xmatrix=[1.401574] units=km
new line.line_18 bus1=bus_11.1 bus2=bus_15.1 linecode=LCode_18 length=1.0 units=km
new linecode.LCode_20 nphases=1 rmatrix=[1.116320] xmatrix=[1.242115] units=km
new line.line_20 bus1=bus_15.1 bus2=bus_16.1 linecode=LCode_20 length=1.0 units=km
new linecode.LCode_21 nphases=1 rmatrix=[0.708361] xmatrix=[1.242115] units=km
new line.line_21 bus1=bus_16.1 bus2=bus_17.1 linecode=LCode_21 length=1.0 units=km
new linecode.LCode_23 nphases=1 rmatrix=[0.517964] xmatrix=[1.382449] units=km
new line.line_23 bus1=bus_18.3 bus2=bus_19.3 linecode=LCode_23 length=1.0 units=km
new linecode.LCode_24 nphases=1 rmatrix=[0.941898] xmatrix=[1.356902] units=km
new line.line_24 bus1=bus_14.3 bus2=bus_18.3 linecode=LCode_24 length=1.0 units=km
new linecode.LCode_25 nphases=1 rmatrix=[0.885980] xmatrix=[1.242115] units=km
new line.line_25 bus1=bus_19.3 bus2=bus_20.3 linecode=LCode_25 length=1.0 units=km
new linecode.LCode_26 nphases=1 rmatrix=[0.881546] xmatrix=[1.242115] units=km
new line.line_26 bus1=bus_20.3 bus2=bus_21.3 linecode=LCode_26 length=1.0 units=km
new linecode.LCode_27 nphases=1 rmatrix=[0.495247] xmatrix=[1.352030] units=km
new line.line_27 bus1=bus_21.3 bus2=bus_22.3 linecode=LCode_27 length=1.0 units=km
new linecode.LCode_28 nphases=1 rmatrix=[0.650112] xmatrix=[1.242115] units=km
new line.line_28 bus1=bus_22.3 bus2=bus_23.3 linecode=LCode_28 length=1.0 units=km
new linecode.LCode_29 nphases=1 rmatrix=[0.503201] xmatrix=[1.242115] units=km
new line.line_29 bus1=bus_22.3 bus2=bus_24.3 linecode=LCode_29 length=1.0 units=km
new linecode.LCode_30 nphases=1 rmatrix=[0.782794] xmatrix=[1.242115] units=km
new line.line_30 bus1=bus_24.3 bus2=bus_26.3 linecode=LCode_30 length=1.0 units=km
new linecode.LCode_31 nphases=1 rmatrix=[1.297266] xmatrix=[1.354261] units=km
new line.line_31 bus1=bus_26.3 bus2=bus_27.3 linecode=LCode_31 length=1.0 units=km
new linecode.LCode_32 nphases=1 rmatrix=[0.787202] xmatrix=[1.242115] units=km
new line.line_32 bus1=bus_27.3 bus2=bus_28.3 linecode=LCode_32 length=1.0 units=km
new linecode.LCode_33 nphases=1 rmatrix=[0.723445] xmatrix=[1.496515] units=km
new line.line_33 bus1=bus_7.1 bus2=bus_29.1 linecode=LCode_33 length=1.0 units=km
new linecode.LCode_36 nphases=1 rmatrix=[0.897378] xmatrix=[1.346638] units=km
new line.line_36 bus1=bus_28.3 bus2=bus_30.3 linecode=LCode_36 length=1.0 units=km
new linecode.LCode_37 nphases=1 rmatrix=[0.397187] xmatrix=[1.319023] units=km
new line.line_37 bus1=bus_22.3 bus2=bus_31.3 linecode=LCode_37 length=1.0 units=km
new linecode.LCode_38 nphases=1 rmatrix=[0.956710] xmatrix=[1.242115] units=km
new line.line_38 bus1=bus_30.3 bus2=bus_31.3 linecode=LCode_38 length=1.0 units=km
new linecode.LCode_39 nphases=1 rmatrix=[0.456838] xmatrix=[1.282543] units=km
new line.line_39 bus1=bus_26.3 bus2=bus_31.3 linecode=LCode_39 length=1.0 units=km
new linecode.LCode_40 nphases=2 rmatrix=[1.180726 | 0.059160 1.180726] xmatrix=[1.242115 | 1.024695 1.242115] units=km
new line.line_40 bus1=bus_14.2.3 bus2=bus_32.2.3 linecode=LCode_40 length=1.0 units=km
new linecode.LCode_41 nphases=1 rmatrix=[0.431118] xmatrix=[1.242115] units=km
new line.line_41 bus1=bus_18.3 bus2=bus_33.3 linecode=LCode_41 length=1.0 units=km
new linecode.LCode_42 nphases=2 rmatrix=[0.577383 | 0.059160 0.577383] xmatrix=[1.367026 | 1.024695 1.367026] units=km
new line.line_42 bus1=bus_34.2.3 bus2=bus_35.2.3 linecode=LCode_42 length=1.0 units=km
new linecode.LCode_43 nphases=2 rmatrix=[0.632604 | 0.059160 0.632604] xmatrix=[1.242115 | 1.024695 1.242115] units=km
new line.line_43 bus1=bus_34.2.3 bus2=bus_36.2.3 linecode=LCode_43 length=1.0 units=km
new linecode.LCode_44 nphases=2 rmatrix=[0.479259 | 0.059160 0.479259] xmatrix=[1.242115 | 1.024695 1.242115] units=km
new line.line_44 bus1=bus_32.2.3 bus2=bus_36.2.3 linecode=LCode_44 length=1.0 units=km
new linecode.LCode_45 nphases=1 rmatrix=[0.937966] xmatrix=[1.269831] units=km
new line.line_45 bus1=bus_33.3 bus2=bus_35.3 linecode=LCode_45 length=1.0 units=km
new linecode.LCode_46 nphases=1 rmatrix=[0.560992] xmatrix=[1.414337] units=km
new line.line_46 bus1=bus_33.3 bus2=bus_36.3 linecode=LCode_46 length=1.0 units=km
new linecode.LCode_47 nphases=2 rmatrix=[0.585078 | 0.059160 0.585078] xmatrix=[1.242115 | 1.024695 1.242115] units=km
new line.line_47 bus1=bus_36.2.3 bus2=bus_38.2.3 linecode=LCode_47 length=1.0 units=km
new linecode.LCode_48 nphases=2 rmatrix=[0.516846 | 0.059160 0.516846] xmatrix=[1.432071 | 1.024695 1.432071] units=km
new line.line_48 bus1=bus_36.2.3 bus2=bus_39.2.3 linecode=LCode_48 length=1.0 units=km
new linecode.LCode_49 nphases=1 rmatrix=[0.519661] xmatrix=[1.242115] units=km
new line.line_49 bus1=bus_29.1 bus2=bus_37.1 linecode=LCode_49 length=1.0 units=km
new linecode.LCode_50 nphases=2 rmatrix=[0.848418 | 0.059160 0.848418] xmatrix=[1.288990 | 1.024695 1.288990] units=km
new line.line_50 bus1=bus_38.2.3 bus2=bus_39.2.3 linecode=LCode_50 length=1.0 units=km
new linecode.LCode_51 nphases=2 rmatrix=[0.958548 | 0.059160 0.958548] xmatrix=[1.400826 | 1.024695 1.400826] units=km
new line.line_51 bus1=bus_39.2.3 bus2=bus_40.2.3 linecode=LCode_51 length=1.0 units=km
new linecode.LCode_52 nphases=2 rmatrix=[0.259810 | 0.059160 0.259810] xmatrix=[1.242115 | 1.024695 1.242115] units=km
new line.line_52 bus1=bus_39.2.3 bus2=bus_41.2.3 linecode=LCode_52 length=1.0 units=km
new linecode.LCode_53 nphases=2 rmatrix=[0.865324 | 0.059160 0.865324] xmatrix=[1.376917 | 1.024695 1.376917] units=km
new line.line_53 bus1=bus_40.2.3 bus2=bus_41.2.3 linecode=LCode_53 length=1.0 units=km
new linecode.LCode_54 nphases=2 rmatrix=[0.159375 | 0.059160 0.159375] xmatrix=[1.242115 | 1.024695 1.242115] units=km
new line.line_54 bus1=bus_42.2.3 bus2=bus_43.2.3 linecode=LCode_54 length=1.0 units=km
new linecode.LCode_55 nphases=1 rmatrix=[0.526242] xmatrix=[1.300635] units=km
new line.line_55 bus1=bus_33.3 bus2=bus_42.3 linecode=LCode_55 length=1.0 units=km
new linecode.LCode_56 nphases=2 rmatrix=[0.263774 | 0.059160 0.263774] xmatrix=[1.242115 | 1.024695 1.242115] units=km
new line.line_56 bus1=bus_43.2.3 bus2=bus_44.2.3 linecode=LCode_56 length=1.0 units=km
new linecode.LCode_57 nphases=1 rmatrix=[0.715737] xmatrix=[1.242115] units=km
new line.line_57 bus1=bus_44.3 bus2=bus_45.3 linecode=LCode_57 length=1.0 units=km
new linecode.LCode_58 nphases=1 rmatrix=[0.826100] xmatrix=[1.242115] units=km
new line.line_58 bus1=bus_45.3 bus2=bus_46.3 linecode=LCode_58 length=1.0 units=km
new linecode.LCode_59 nphases=1 rmatrix=[0.530774] xmatrix=[1.298286] units=km
new line.line_59 bus1=bus_45.3 bus2=bus_47.3 linecode=LCode_59 length=1.0 units=km
new linecode.LCode_60 nphases=1 rmatrix=[0.771291] xmatrix=[1.242115] units=km
new line.line_60 bus1=bus_46.3 bus2=bus_48.3 linecode=LCode_60 length=1.0 units=km
new linecode.LCode_61 nphases=2 rmatrix=[0.996771 | 0.059160 0.996771] xmatrix=[1.494490 | 1.024695 1.494490] units=km
new line.line_61 bus1=bus_41.2.3 bus2=bus_48.2.3 linecode=LCode_61 length=1.0 units=km
new linecode.LCode_62 nphases=2 rmatrix=[0.246822 | 0.059160 0.246822] xmatrix=[1.242115 | 1.024695 1.242115] units=km
new line.line_62 bus1=bus_41.2.3 bus2=bus_48.2.3 linecode=LCode_62 length=1.0 units=km
new linecode.LCode_63 nphases=2 rmatrix=[0.790204 | 0.059160 0.790204] xmatrix=[1.242115 | 1.024695 1.242115] units=km
new line.line_63 bus1=bus_44.2.3 bus2=bus_48.2.3 linecode=LCode_63 length=1.0 units=km
new linecode.LCode_64 nphases=2 rmatrix=[0.973497 | 0.059160 0.973497] xmatrix=[1.379591 | 1.024695 1.379591] units=km
new line.line_64 bus1=bus_47.2.3 bus2=bus_48.2.3 linecode=LCode_64 length=1.0 units=km
new linecode.LCode_65 nphases=2 rmatrix=[0.167943 | 0.059160 0.167943] xmatrix=[1.242115 | 1.024695 1.242115] units=km
new line.line_65 bus1=bus_48.2.3 bus2=bus_49.2.3 linecode=LCode_65 length=1.0 units=km
new linecode.LCode_67 nphases=1 rmatrix=[0.261919] xmatrix=[1.242115] units=km
new line.line_67 bus1=bus_50.1 bus2=bus_51.1 linecode=LCode_67 length=1.0 units=km
new linecode.LCode_69 nphases=2 rmatrix=[0.974051 | 0.059160 0.974051] xmatrix=[1.444014 | 1.024695 1.444014] units=km
new line.line_69 bus1=bus_52.2.3 bus2=bus_53.2.3 linecode=LCode_69 length=1.0 units=km
new linecode.LCode_70 nphases=2 rmatrix=[1.005282 | 0.059160 1.005282] xmatrix=[1.460415 | 1.024695 1.460415] units=km
new line.line_70 bus1=bus_48.2.3 bus2=bus_53.2.3 linecode=LCode_70 length=1.0 units=km
new linecode.LCode_71 nphases=2 rmatrix=[1.088914 | 0.059160 1.088914] xmatrix=[1.337601 | 1.024695 1.337601] units=km
new line.line_71 bus1=bus_48.2.3 bus2=bus_53.2.3 linecode=LCode_71 length=1.0 units=km
new linecode.LCode_72 nphases=2 rmatrix=[0.661738 | 0.059160 0.661738] xmatrix=[1.490628 | 1.024695 1.490628] units=km
new line.line_72 bus1=bus_53.2.3 bus2=bus_54.2.3 linecode=LCode_72 length=1.0 units=km
new linecode.LCode_73 nphases=2 rmatrix=[0.733936 | 0.059160 0.733936] xmatrix=[1.332053 | 1.024695 1.332053] units=km
new line.line_73 bus1=bus_53.2.3 bus2=bus_55.2.3 linecode=LCode_73 length=1.0 units=km
new linecode.LCode_74 nphases=2 rmatrix=[0.592444 | 0.059160 0.592444] xmatrix=[1.442164 | 1.024695 1.442164] units=km
new line.line_74 bus1=bus_54.2.3 bus2=bus_55.2.3 linecode=LCode_74 length=1.0 units=km
new linecode.LCode_75 nphases=2 rmatrix=[0.507002 | 0.059160 0.507002] xmatrix=[1.605929 | 1.024695 1.605929] units=km
new line.line_75 bus1=bus_55.2.3 bus2=bus_56.2.3 linecode=LCode_75 length=1.0 units=km
new linecode.LCode_76 nphases=2 rmatrix=[0.861405 | 0.059160 0.861405] xmatrix=[1.242115 | 1.024695 1.242115] units=km
new line.line_76 bus1=bus_49.2.3 bus2=bus_56.2.3 linecode=LCode_76 length=1.0 units=km
new linecode.LCode_78 nphases=1 rmatrix=[0.569416] xmatrix=[1.520972] units=km
new line.line_78 bus1=bus_50.1 bus2=bus_57.1 linecode=LCode_78 length=1.0 units=km
new linecode.LCode_79 nphases=2 rmatrix=[0.963908 | 0.059160 0.963908] xmatrix=[1.454522 | 1.024695 1.454522] units=km
new line.line_79 bus1=bus_53.2.3 bus2=bus_58.2.3 linecode=LCode_79 length=1.0 units=km
new linecode.LCode_80 nphases=2 rmatrix=[0.396022 | 0.059160 0.396022] xmatrix=[1.242115 | 1.024695 1.242115] units=km
new line.line_80 bus1=bus_55.2.3 bus2=bus_58.2.3 linecode=LCode_80 length=1.0 units=km
new linecode.LCode_81 nphases=2 rmatrix=[1.749402 | 0.059160 1.749402] xmatrix=[1.274076 | 1.024695 1.274076] units=km
new line.line_81 bus1=bus_55.2.3 bus2=bus_58.2.3 linecode=LCode_81 length=1.0 units=km
new linecode.LCode_82 nphases=2 rmatrix=[0.784798 | 0.059160 0.784798] xmatrix=[1.344548 | 1.024695 1.344548] units=km
new line.line_82 bus1=bus_54.2.3 bus2=bus_58.2.3 linecode=LCode_82 length=1.0 units=km
new linecode.LCode_83 nphases=2 rmatrix=[0.430740 | 0.059160 0.430740] xmatrix=[1.253011 | 1.024695 1.253011] units=km
new line.line_83 bus1=bus_58.2.3 bus2=bus_59.2.3 linecode=LCode_83 length=1.0 units=km
new linecode.LCode_84 nphases=1 rmatrix=[0.247898] xmatrix=[1.242115] units=km
new line.line_84 bus1=bus_58.3 bus2=bus_60.3 linecode=LCode_84 length=1.0 units=km
new linecode.LCode_85 nphases=1 rmatrix=[0.785235] xmatrix=[1.242115] units=km
new line.line_85 bus1=bus_59.3 bus2=bus_60.3 linecode=LCode_85 length=1.0 units=km
new linecode.LCode_86 nphases=2 rmatrix=[0.909300 | 0.059160 0.909300] xmatrix=[1.270215 | 1.024695 1.270215] units=km
new line.line_86 bus1=bus_59.2.3 bus2=bus_61.2.3 linecode=LCode_86 length=1.0 units=km
new linecode.LCode_87 nphases=1 rmatrix=[0.948125] xmatrix=[1.286853] units=km
new line.line_87 bus1=bus_60.3 bus2=bus_61.3 linecode=LCode_87 length=1.0 units=km
new linecode.LCode_88 nphases=2 rmatrix=[0.470575 | 0.059160 0.470575] xmatrix=[1.346288 | 1.024695 1.346288] units=km
new line.line_88 bus1=bus_62.2.3 bus2=bus_63.2.3 linecode=LCode_88 length=1.0 units=km
new linecode.LCode_90 nphases=2 rmatrix=[0.712884 | 0.059160 0.712884] xmatrix=[1.306887 | 1.024695 1.306887] units=km
new line.line_90 bus1=bus_63.2.3 bus2=bus_64.2.3 linecode=LCode_90 length=1.0 units=km
new linecode.LCode_91 nphases=2 rmatrix=[0.559414 | 0.059160 0.559414] xmatrix=[1.312691 | 1.024695 1.312691] units=km
new line.line_91 bus1=bus_48.2.3 bus2=bus_65.2.3 linecode=LCode_91 length=1.0 units=km
new linecode.LCode_92 nphases=2 rmatrix=[0.415835 | 0.059160 0.415835] xmatrix=[1.242115 | 1.024695 1.242115] units=km
new line.line_92 bus1=bus_48.2.3 bus2=bus_65.2.3 linecode=LCode_92 length=1.0 units=km
new linecode.LCode_93 nphases=2 rmatrix=[0.961340 | 0.059160 0.961340] xmatrix=[1.343543 | 1.024695 1.343543] units=km
new line.line_93 bus1=bus_61.2.3 bus2=bus_65.2.3 linecode=LCode_93 length=1.0 units=km
new linecode.LCode_94 nphases=2 rmatrix=[0.758028 | 0.059160 0.758028] xmatrix=[1.512836 | 1.024695 1.512836] units=km
new line.line_94 bus1=bus_61.2.3 bus2=bus_66.2.3 linecode=LCode_94 length=1.0 units=km
new linecode.LCode_95 nphases=2 rmatrix=[0.654890 | 0.059160 0.654890] xmatrix=[1.414949 | 1.024695 1.414949] units=km
new line.line_95 bus1=bus_65.2.3 bus2=bus_66.2.3 linecode=LCode_95 length=1.0 units=km
new linecode.LCode_96 nphases=1 rmatrix=[0.692975] xmatrix=[1.261292] units=km
new line.line_96 bus1=bus_46.3 bus2=bus_68.3 linecode=LCode_96 length=1.0 units=km
new linecode.LCode_97 nphases=2 rmatrix=[0.604460 | 0.059160 0.604460] xmatrix=[1.383152 | 1.024695 1.383152] units=km
new line.line_97 bus1=bus_48.2.3 bus2=bus_68.2.3 linecode=LCode_97 length=1.0 units=km
new linecode.LCode_98 nphases=2 rmatrix=[0.909896 | 0.059160 0.909896] xmatrix=[1.253963 | 1.024695 1.253963] units=km
new line.line_98 bus1=bus_68.2.3 bus2=bus_69.2.3 linecode=LCode_98 length=1.0 units=km
new linecode.LCode_99 nphases=2 rmatrix=[0.149209 | 0.059160 0.149209] xmatrix=[1.242115 | 1.024695 1.242115] units=km
new line.line_99 bus1=bus_23.2.3 bus2=bus_69.2.3 linecode=LCode_99 length=1.0 units=km
new linecode.LCode_100 nphases=1 rmatrix=[0.935970] xmatrix=[1.242115] units=km
new line.line_100 bus1=bus_69.3 bus2=bus_70.3 linecode=LCode_100 length=1.0 units=km
new linecode.LCode_101 nphases=2 rmatrix=[1.452814 | 0.059160 1.452814] xmatrix=[1.242115 | 1.024695 1.242115] units=km
new line.line_101 bus1=bus_23.2.3 bus2=bus_71.2.3 linecode=LCode_101 length=1.0 units=km
new linecode.LCode_102 nphases=1 rmatrix=[0.575902] xmatrix=[1.572767] units=km
new line.line_102 bus1=bus_70.3 bus2=bus_71.3 linecode=LCode_102 length=1.0 units=km
new linecode.LCode_103 nphases=1 rmatrix=[0.951226] xmatrix=[1.242115] units=km
new line.line_103 bus1=bus_70.3 bus2=bus_72.3 linecode=LCode_103 length=1.0 units=km
new linecode.LCode_104 nphases=2 rmatrix=[0.634563 | 0.059160 0.634563] xmatrix=[1.506864 | 1.024695 1.506864] units=km
new line.line_104 bus1=bus_69.2.3 bus2=bus_73.2.3 linecode=LCode_104 length=1.0 units=km
new linecode.LCode_105 nphases=1 rmatrix=[0.868120] xmatrix=[1.287079] units=km
new line.line_105 bus1=bus_69.3 bus2=bus_74.3 linecode=LCode_105 length=1.0 units=km
new linecode.LCode_106 nphases=2 rmatrix=[0.822300 | 0.059160 0.822300] xmatrix=[1.242115 | 0.940589 1.242115] units=km
new line.line_106 bus1=bus_68.1.3 bus2=bus_74.1.3 linecode=LCode_106 length=1.0 units=km
new linecode.LCode_107 nphases=1 rmatrix=[0.494809] xmatrix=[1.288828] units=km
new line.line_107 bus1=bus_73.3 bus2=bus_74.3 linecode=LCode_107 length=1.0 units=km
new linecode.LCode_108 nphases=1 rmatrix=[0.629362] xmatrix=[1.243466] units=km
new line.line_108 bus1=bus_75.1 bus2=bus_76.1 linecode=LCode_108 length=1.0 units=km
new linecode.LCode_109 nphases=1 rmatrix=[0.270485] xmatrix=[1.242115] units=km
new line.line_109 bus1=bus_68.1 bus2=bus_76.1 linecode=LCode_109 length=1.0 units=km
new linecode.LCode_110 nphases=1 rmatrix=[0.615038] xmatrix=[1.242115] units=km
new line.line_110 bus1=bus_74.1 bus2=bus_76.1 linecode=LCode_110 length=1.0 units=km
new linecode.LCode_111 nphases=1 rmatrix=[0.366466] xmatrix=[1.326960] units=km
new line.line_111 bus1=bus_76.1 bus2=bus_77.1 linecode=LCode_111 length=1.0 units=km
new linecode.LCode_112 nphases=1 rmatrix=[0.883674] xmatrix=[1.242115] units=km
new line.line_112 bus1=bus_77.1 bus2=bus_78.1 linecode=LCode_112 length=1.0 units=km
new linecode.LCode_113 nphases=1 rmatrix=[0.668537] xmatrix=[1.298129] units=km
new line.line_113 bus1=bus_76.1 bus2=bus_79.1 linecode=LCode_113 length=1.0 units=km
new linecode.LCode_114 nphases=1 rmatrix=[0.824854] xmatrix=[1.291494] units=km
new line.line_114 bus1=bus_76.1 bus2=bus_79.1 linecode=LCode_114 length=1.0 units=km
new linecode.LCode_115 nphases=1 rmatrix=[0.786282] xmatrix=[1.342742] units=km
new line.line_115 bus1=bus_78.1 bus2=bus_79.1 linecode=LCode_115 length=1.0 units=km
new linecode.LCode_116 nphases=1 rmatrix=[0.322971] xmatrix=[1.414041] units=km
new line.line_116 bus1=bus_76.1 bus2=bus_81.1 linecode=LCode_116 length=1.0 units=km
new linecode.LCode_117 nphases=1 rmatrix=[0.656629] xmatrix=[1.424348] units=km
new line.line_117 bus1=bus_81.1 bus2=bus_82.1 linecode=LCode_117 length=1.0 units=km
new linecode.LCode_118 nphases=1 rmatrix=[0.934541] xmatrix=[1.391471] units=km
new line.line_118 bus1=bus_82.1 bus2=bus_83.1 linecode=LCode_118 length=1.0 units=km
new linecode.LCode_119 nphases=1 rmatrix=[0.511765] xmatrix=[1.424779] units=km
new line.line_119 bus1=bus_82.1 bus2=bus_84.1 linecode=LCode_119 length=1.0 units=km
new linecode.LCode_120 nphases=1 rmatrix=[0.764936] xmatrix=[1.632164] units=km
new line.line_120 bus1=bus_83.1 bus2=bus_84.1 linecode=LCode_120 length=1.0 units=km
new linecode.LCode_121 nphases=1 rmatrix=[0.587764] xmatrix=[1.242115] units=km
new line.line_121 bus1=bus_84.1 bus2=bus_85.1 linecode=LCode_121 length=1.0 units=km
new linecode.LCode_122 nphases=1 rmatrix=[1.024784] xmatrix=[1.242115] units=km
new line.line_122 bus1=bus_84.1 bus2=bus_87.1 linecode=LCode_122 length=1.0 units=km
new linecode.LCode_123 nphases=1 rmatrix=[0.625530] xmatrix=[1.263194] units=km
new line.line_123 bus1=bus_84.1 bus2=bus_88.1 linecode=LCode_123 length=1.0 units=km
new linecode.LCode_124 nphases=1 rmatrix=[0.702596] xmatrix=[1.488234] units=km
new line.line_124 bus1=bus_87.1 bus2=bus_88.1 linecode=LCode_124 length=1.0 units=km
new linecode.LCode_125 nphases=1 rmatrix=[0.914200] xmatrix=[1.242115] units=km
new line.line_125 bus1=bus_88.1 bus2=bus_89.1 linecode=LCode_125 length=1.0 units=km
new linecode.LCode_126 nphases=1 rmatrix=[0.597541] xmatrix=[1.302431] units=km
new line.line_126 bus1=bus_88.1 bus2=bus_89.1 linecode=LCode_126 length=1.0 units=km
new linecode.LCode_127 nphases=1 rmatrix=[1.067741] xmatrix=[1.328713] units=km
new line.line_127 bus1=bus_89.1 bus2=bus_90.1 linecode=LCode_127 length=1.0 units=km
new linecode.LCode_128 nphases=1 rmatrix=[1.209853] xmatrix=[1.463300] units=km
new line.line_128 bus1=bus_88.1 bus2=bus_91.1 linecode=LCode_128 length=1.0 units=km
new linecode.LCode_129 nphases=1 rmatrix=[0.712245] xmatrix=[1.326308] units=km
new line.line_129 bus1=bus_88.1 bus2=bus_91.1 linecode=LCode_129 length=1.0 units=km
new linecode.LCode_130 nphases=1 rmatrix=[0.750724] xmatrix=[1.382343] units=km
new line.line_130 bus1=bus_90.1 bus2=bus_91.1 linecode=LCode_130 length=1.0 units=km
new linecode.LCode_131 nphases=1 rmatrix=[0.595579] xmatrix=[1.626162] units=km
new line.line_131 bus1=bus_91.1 bus2=bus_92.1 linecode=LCode_131 length=1.0 units=km
new linecode.LCode_132 nphases=1 rmatrix=[0.778491] xmatrix=[1.439513] units=km
new line.line_132 bus1=bus_91.1 bus2=bus_93.1 linecode=LCode_132 length=1.0 units=km
new linecode.LCode_133 nphases=1 rmatrix=[0.242743] xmatrix=[1.514409] units=km
new line.line_133 bus1=bus_92.1 bus2=bus_93.1 linecode=LCode_133 length=1.0 units=km
new linecode.LCode_134 nphases=1 rmatrix=[1.007600] xmatrix=[1.616081] units=km
new line.line_134 bus1=bus_93.1 bus2=bus_94.1 linecode=LCode_134 length=1.0 units=km
new linecode.LCode_135 nphases=1 rmatrix=[0.627220] xmatrix=[1.348710] units=km
new line.line_135 bus1=bus_79.1 bus2=bus_95.1 linecode=LCode_135 length=1.0 units=km
new linecode.LCode_136 nphases=1 rmatrix=[0.330835] xmatrix=[1.276113] units=km
new line.line_136 bus1=bus_81.1 bus2=bus_95.1 linecode=LCode_136 length=1.0 units=km
new linecode.LCode_137 nphases=1 rmatrix=[0.802080] xmatrix=[1.259879] units=km
new line.line_137 bus1=bus_93.1 bus2=bus_95.1 linecode=LCode_137 length=1.0 units=km
new linecode.LCode_138 nphases=1 rmatrix=[0.919725] xmatrix=[1.380684] units=km
new line.line_138 bus1=bus_79.1 bus2=bus_96.1 linecode=LCode_138 length=1.0 units=km
new linecode.LCode_139 nphases=1 rmatrix=[0.643452] xmatrix=[1.451519] units=km
new line.line_139 bus1=bus_79.1 bus2=bus_97.1 linecode=LCode_139 length=1.0 units=km
new linecode.LCode_140 nphases=1 rmatrix=[0.232445] xmatrix=[1.242115] units=km
new line.line_140 bus1=bus_79.1 bus2=bus_98.1 linecode=LCode_140 length=1.0 units=km
new linecode.LCode_141 nphases=1 rmatrix=[0.735573] xmatrix=[1.242115] units=km
new line.line_141 bus1=bus_91.1 bus2=bus_99.1 linecode=LCode_141 length=1.0 units=km
new linecode.LCode_142 nphases=1 rmatrix=[1.051967] xmatrix=[1.242115] units=km
new line.line_142 bus1=bus_93.1 bus2=bus_99.1 linecode=LCode_142 length=1.0 units=km
new linecode.LCode_143 nphases=1 rmatrix=[1.174604] xmatrix=[1.242115] units=km
new line.line_143 bus1=bus_94.1 bus2=bus_95.1 linecode=LCode_143 length=1.0 units=km
new linecode.LCode_144 nphases=1 rmatrix=[0.872595] xmatrix=[1.242115] units=km
new line.line_144 bus1=bus_95.1 bus2=bus_96.1 linecode=LCode_144 length=1.0 units=km
new linecode.LCode_145 nphases=1 rmatrix=[0.914155] xmatrix=[1.290826] units=km
new line.line_145 bus1=bus_97.1 bus2=bus_99.1 linecode=LCode_145 length=1.0 units=km
new linecode.LCode_146 nphases=1 rmatrix=[0.662235] xmatrix=[1.242115] units=km
new line.line_146 bus1=bus_98.1 bus2=bus_99.1 linecode=LCode_146 length=1.0 units=km
new linecode.LCode_147 nphases=1 rmatrix=[0.499984] xmatrix=[1.429109] units=km
new line.line_147 bus1=bus_99.1 bus2=bus_100.1 linecode=LCode_147 length=1.0 units=km
new linecode.LCode_148 nphases=1 rmatrix=[0.971984] xmatrix=[1.242115] units=km
new line.line_148 bus1=bus_91.1 bus2=bus_101.1 linecode=LCode_148 length=1.0 units=km
new linecode.LCode_149 nphases=1 rmatrix=[0.333194] xmatrix=[1.242115] units=km
new line.line_149 bus1=bus_100.1 bus2=bus_101.1 linecode=LCode_149 length=1.0 units=km
new linecode.LCode_150 nphases=1 rmatrix=[0.701759] xmatrix=[1.353614] units=km
new line.line_150 bus1=bus_99.1 bus2=bus_102.1 linecode=LCode_150 length=1.0 units=km
new linecode.LCode_151 nphases=1 rmatrix=[1.141448] xmatrix=[1.242115] units=km
new line.line_151 bus1=bus_99.1 bus2=bus_103.1 linecode=LCode_151 length=1.0 units=km
new linecode.LCode_152 nphases=1 rmatrix=[0.780752] xmatrix=[1.291448] units=km
new line.line_152 bus1=bus_102.1 bus2=bus_103.1 linecode=LCode_152 length=1.0 units=km
new linecode.LCode_153 nphases=1 rmatrix=[1.151298] xmatrix=[1.242115] units=km
new line.line_153 bus1=bus_102.1 bus2=bus_104.1 linecode=LCode_153 length=1.0 units=km
new linecode.LCode_154 nphases=1 rmatrix=[0.396923] xmatrix=[1.411406] units=km
new line.line_154 bus1=bus_99.1 bus2=bus_105.1 linecode=LCode_154 length=1.0 units=km
new linecode.LCode_155 nphases=1 rmatrix=[0.804895] xmatrix=[1.308723] units=km
new line.line_155 bus1=bus_103.1 bus2=bus_104.1 linecode=LCode_155 length=1.0 units=km
new linecode.LCode_156 nphases=1 rmatrix=[0.993919] xmatrix=[1.242115] units=km
new line.line_156 bus1=bus_104.1 bus2=bus_105.1 linecode=LCode_156 length=1.0 units=km
new linecode.LCode_157 nphases=1 rmatrix=[0.719135] xmatrix=[1.242115] units=km
new line.line_157 bus1=bus_104.1 bus2=bus_106.1 linecode=LCode_157 length=1.0 units=km
new linecode.LCode_158 nphases=1 rmatrix=[0.693500] xmatrix=[1.513390] units=km
new line.line_158 bus1=bus_104.1 bus2=bus_107.1 linecode=LCode_158 length=1.0 units=km
new linecode.LCode_159 nphases=1 rmatrix=[0.838586] xmatrix=[1.341830] units=km
new line.line_159 bus1=bus_105.1 bus2=bus_106.1 linecode=LCode_159 length=1.0 units=km
new linecode.LCode_160 nphases=1 rmatrix=[0.707165] xmatrix=[1.281531] units=km
new line.line_160 bus1=bus_107.1 bus2=bus_108.1 linecode=LCode_160 length=1.0 units=km
new linecode.LCode_161 nphases=1 rmatrix=[0.960873] xmatrix=[1.297075] units=km
new line.line_161 bus1=bus_102.1 bus2=bus_109.1 linecode=LCode_161 length=1.0 units=km
new linecode.LCode_162 nphases=1 rmatrix=[0.585539] xmatrix=[1.370313] units=km
new line.line_162 bus1=bus_108.1 bus2=bus_109.1 linecode=LCode_162 length=1.0 units=km
new linecode.LCode_163 nphases=1 rmatrix=[0.641272] xmatrix=[1.417266] units=km
new line.line_163 bus1=bus_109.1 bus2=bus_110.1 linecode=LCode_163 length=1.0 units=km
new linecode.LCode_164 nphases=1 rmatrix=[0.657701] xmatrix=[1.273750] units=km
new line.line_164 bus1=bus_109.1 bus2=bus_111.1 linecode=LCode_164 length=1.0 units=km
new linecode.LCode_166 nphases=1 rmatrix=[0.877007] xmatrix=[1.242115] units=km
new line.line_166 bus1=bus_31.3 bus2=bus_112.3 linecode=LCode_166 length=1.0 units=km
new linecode.LCode_167 nphases=1 rmatrix=[0.900969] xmatrix=[1.360708] units=km
new line.line_167 bus1=bus_31.3 bus2=bus_113.3 linecode=LCode_167 length=1.0 units=km
new linecode.LCode_168 nphases=1 rmatrix=[0.881822] xmatrix=[1.242115] units=km
new line.line_168 bus1=bus_26.3 bus2=bus_114.3 linecode=LCode_168 length=1.0 units=km
new linecode.LCode_169 nphases=1 rmatrix=[0.995746] xmatrix=[1.242115] units=km
new line.line_169 bus1=bus_113.3 bus2=bus_114.3 linecode=LCode_169 length=1.0 units=km
new linecode.LCode_170 nphases=1 rmatrix=[0.487654] xmatrix=[1.459052] units=km
new line.line_170 bus1=bus_11.1 bus2=bus_116.1 linecode=LCode_170 length=1.0 units=km
new linecode.LCode_171 nphases=2 rmatrix=[0.740573 | 0.059160 0.740573] xmatrix=[1.323868 | 0.940589 1.323868] units=km
new line.line_171 bus1=bus_74.1.3 bus2=bus_117.1.3 linecode=LCode_171 length=1.0 units=km
new linecode.LCode_172 nphases=1 rmatrix=[0.222290] xmatrix=[1.595084] units=km
new line.line_172 bus1=bus_75.1 bus2=bus_117.1 linecode=LCode_172 length=1.0 units=km

!---------------- LOADS ----------------

new load.load_0_A bus1=bus_0.1 Phases=1 kv=157.6864406779661 kw=1664.489558619325 kvar=545.9525752271386 vminpu=0.85
new load.load_1_A bus1=bus_1.1 Phases=1 kv=157.6864406779661 kw=2052.118964493038 kvar=673.0950203537166 vminpu=0.85
new load.load_2_A bus1=bus_2.1 Phases=1 kv=157.6864406779661 kw=2004.914398137577 kvar=657.6119225891254 vminpu=0.85
new load.load_3_A bus1=bus_3.1 Phases=1 kv=157.6864406779661 kw=2206.4546259768463 kvar=723.7171173204056 vminpu=0.85
new load.load_4_A bus1=bus_4.1 Phases=1 kv=157.6864406779661 kw=1889.2780997443167 kvar=619.6832167161359 vminpu=0.85
new load.load_5_A bus1=bus_5.1 Phases=1 kv=157.6864406779661 kw=2205.1799520619365 kvar=723.2990242763152 vminpu=0.85
new load.load_6_A bus1=bus_6.1 Phases=1 kv=157.6864406779661 kw=1779.693556135191 kvar=583.7394864123427 vminpu=0.85
new load.load_7_A bus1=bus_7.1 Phases=1 kv=157.6864406779661 kw=2218.14987914428 kvar=727.5531603593239 vminpu=0.85
new load.load_8_A bus1=bus_8.1 Phases=1 kv=157.6864406779661 kw=2401.930003053226 kvar=787.8330410014581 vminpu=0.85
new load.load_9_A bus1=bus_9.1 Phases=1 kv=157.6864406779661 kw=1610.2323671342442 kvar=528.1562164200321 vminpu=0.85
new load.load_10_A bus1=bus_10.1 Phases=1 kv=157.6864406779661 kw=2274.7882299567773 kvar=746.130539425823 vminpu=0.85
new load.load_11_A bus1=bus_11.1 Phases=1 kv=157.6864406779661 kw=2220.663329142881 kvar=728.377571958865 vminpu=0.85
new load.load_12_B bus1=bus_12.2 Phases=1 kv=157.6864406779661 kw=2429.8816152196014 kvar=797.0011697920293 vminpu=0.85
new load.load_12_C bus1=bus_12.3 Phases=1 kv=157.6864406779661 kw=283.5233773359157 kvar=92.99566776618036 vminpu=0.85
new load.load_13_B bus1=bus_13.2 Phases=1 kv=157.6864406779661 kw=1987.6045090743569 kvar=651.9342789763891 vminpu=0.85
new load.load_13_C bus1=bus_13.3 Phases=1 kv=157.6864406779661 kw=16.106567242017142 kvar=5.282954055381623 vminpu=0.85
new load.load_14_B bus1=bus_14.2 Phases=1 kv=157.6864406779661 kw=518.2538091051755 kvar=169.98724938649758 vminpu=0.85
new load.load_14_C bus1=bus_14.3 Phases=1 kv=157.6864406779661 kw=1517.3704294785434 kvar=497.69750086896227 vminpu=0.85
new load.load_15_A bus1=bus_15.1 Phases=1 kv=157.6864406779661 kw=1985.6076961452145 kvar=651.2793243356303 vminpu=0.85
new load.load_16_A bus1=bus_16.1 Phases=1 kv=157.6864406779661 kw=2630.672109356115 kvar=862.8604518688057 vminpu=0.85
new load.load_17_A bus1=bus_17.1 Phases=1 kv=157.6864406779661 kw=2186.3414413286514 kvar=717.1199927557977 vminpu=0.85
new load.load_18_C bus1=bus_18.3 Phases=1 kv=157.6864406779661 kw=1749.5367030008006 kvar=573.8480385842627 vminpu=0.85
new load.load_19_C bus1=bus_19.3 Phases=1 kv=157.6864406779661 kw=2247.1826138288457 kvar=737.0758973358614 vminpu=0.85
new load.load_20_C bus1=bus_20.3 Phases=1 kv=157.6864406779661 kw=2326.7772861820963 kvar=763.1829498677276 vminpu=0.85
new load.load_21_C bus1=bus_21.3 Phases=1 kv=157.6864406779661 kw=2297.895836504784 kvar=753.7098343735692 vminpu=0.85
new load.load_22_C bus1=bus_22.3 Phases=1 kv=157.6864406779661 kw=2256.678864429168 kvar=740.1906675327671 vminpu=0.85
new load.load_23_B bus1=bus_23.2 Phases=1 kv=157.6864406779661 kw=399.9016342218496 kvar=131.16773602476667 vminpu=0.85
new load.load_23_C bus1=bus_23.3 Phases=1 kv=157.6864406779661 kw=1892.9100631749443 kvar=620.8745007213818 vminpu=0.85
new load.load_24_C bus1=bus_24.3 Phases=1 kv=157.6864406779661 kw=2368.068286978701 kvar=776.726398129014 vminpu=0.85
new load.load_25_C bus1=bus_25.3 Phases=1 kv=157.6864406779661 kw=1800.6490037941771 kvar=590.6128732444902 vminpu=0.85
new load.load_26_C bus1=bus_26.3 Phases=1 kv=157.6864406779661 kw=1698.413822346401 kvar=557.0797337296195 vminpu=0.85
new load.load_27_C bus1=bus_27.3 Phases=1 kv=157.6864406779661 kw=1892.3358810398609 kvar=620.6861689810744 vminpu=0.85
new load.load_28_C bus1=bus_28.3 Phases=1 kv=157.6864406779661 kw=2024.6528564611544 kvar=664.0861369192587 vminpu=0.85
new load.load_29_A bus1=bus_29.1 Phases=1 kv=157.6864406779661 kw=2042.4216772667312 kvar=669.9143101434879 vminpu=0.85
new load.load_30_C bus1=bus_30.3 Phases=1 kv=157.6864406779661 kw=1990.5916473077543 kvar=652.9140603169434 vminpu=0.85
new load.load_31_C bus1=bus_31.3 Phases=1 kv=157.6864406779661 kw=1501.530947000338 kvar=492.5021506161109 vminpu=0.85
new load.load_32_B bus1=bus_32.2 Phases=1 kv=157.6864406779661 kw=16.524495572621234 kvar=5.420034547819765 vminpu=0.85
new load.load_32_C bus1=bus_32.3 Phases=1 kv=157.6864406779661 kw=1295.4072742708152 kvar=424.8935859608274 vminpu=0.85
new load.load_33_C bus1=bus_33.3 Phases=1 kv=157.6864406779661 kw=1691.0226301068535 kvar=554.6554226750479 vminpu=0.85
new load.load_34_B bus1=bus_34.2 Phases=1 kv=157.6864406779661 kw=1789.0225408115955 kvar=586.7993933862033 vminpu=0.85
new load.load_34_C bus1=bus_34.3 Phases=1 kv=157.6864406779661 kw=1237.7709704270137 kvar=405.9888783000605 vminpu=0.85
new load.load_35_B bus1=bus_35.2 Phases=1 kv=157.6864406779661 kw=1526.6634658805938 kvar=500.74561680883477 vminpu=0.85
new load.load_35_C bus1=bus_35.3 Phases=1 kv=157.6864406779661 kw=131.67848652112608 kvar=43.19054357892936 vminpu=0.85
new load.load_36_B bus1=bus_36.2 Phases=1 kv=157.6864406779661 kw=1692.097461753299 kvar=555.0079674550822 vminpu=0.85
new load.load_36_C bus1=bus_36.3 Phases=1 kv=157.6864406779661 kw=403.557406857296 kvar=132.3668294491931 vminpu=0.85
new load.load_37_A bus1=bus_37.1 Phases=1 kv=157.6864406779661 kw=1992.050698511552 kvar=653.392629111789 vminpu=0.85
new load.load_38_B bus1=bus_38.2 Phases=1 kv=157.6864406779661 kw=1738.508514219036 kvar=570.2307926638438 vminpu=0.85
new load.load_38_C bus1=bus_38.3 Phases=1 kv=157.6864406779661 kw=211.1742179709233 kvar=69.26514349446285 vminpu=0.85
new load.load_39_B bus1=bus_39.2 Phases=1 kv=157.6864406779661 kw=438.6058119707188 kvar=143.86270632639577 vminpu=0.85
new load.load_39_C bus1=bus_39.3 Phases=1 kv=157.6864406779661 kw=1772.8014738141087 kvar=581.4788834110277 vminpu=0.85
new load.load_40_B bus1=bus_40.2 Phases=1 kv=157.6864406779661 kw=468.3733825094805 kvar=153.6264694631096 vminpu=0.85
new load.load_40_C bus1=bus_40.3 Phases=1 kv=157.6864406779661 kw=1442.979695778928 kvar=473.2973402154884 vminpu=0.85
new load.load_41_B bus1=bus_41.2 Phases=1 kv=157.6864406779661 kw=1646.6206064608443 kvar=540.0915589191569 vminpu=0.85
new load.load_41_C bus1=bus_41.3 Phases=1 kv=157.6864406779661 kw=393.29226277383424 kvar=128.99986218981763 vminpu=0.85
new load.load_42_B bus1=bus_42.2 Phases=1 kv=157.6864406779661 kw=949.259008850538 kvar=311.35695490297644 vminpu=0.85
new load.load_42_C bus1=bus_42.3 Phases=1 kv=157.6864406779661 kw=1199.1326644597648 kvar=393.31551394280285 vminpu=0.85
new load.load_43_B bus1=bus_43.2 Phases=1 kv=157.6864406779661 kw=303.40340827856386 kvar=99.51631791536894 vminpu=0.85
new load.load_43_C bus1=bus_43.3 Phases=1 kv=157.6864406779661 kw=2220.943346669685 kvar=728.4694177076567 vminpu=0.85
new load.load_44_B bus1=bus_44.2 Phases=1 kv=157.6864406779661 kw=879.2121868338694 kvar=288.3815972815092 vminpu=0.85
new load.load_44_C bus1=bus_44.3 Phases=1 kv=157.6864406779661 kw=1173.025571641432 kvar=384.7523874983897 vminpu=0.85
new load.load_45_C bus1=bus_45.3 Phases=1 kv=157.6864406779661 kw=1731.1918760845776 kvar=567.8309353557415 vminpu=0.85
new load.load_46_C bus1=bus_46.3 Phases=1 kv=157.6864406779661 kw=3157.447946352433 kvar=1035.642926403598 vminpu=0.85
new load.load_47_B bus1=bus_47.2 Phases=1 kv=157.6864406779661 kw=1626.2237396409434 kvar=533.4013866022294 vminpu=0.85
new load.load_47_C bus1=bus_47.3 Phases=1 kv=157.6864406779661 kw=311.36511253137456 kvar=102.12775691029086 vminpu=0.85
new load.load_48_B bus1=bus_48.2 Phases=1 kv=157.6864406779661 kw=1338.6422721590116 kvar=439.0746652681558 vminpu=0.85
new load.load_48_C bus1=bus_48.3 Phases=1 kv=157.6864406779661 kw=1071.837730068778 kvar=351.5627754625592 vminpu=0.85
new load.load_49_B bus1=bus_49.2 Phases=1 kv=157.6864406779661 kw=946.906211765826 kvar=310.5852374591909 vminpu=0.85
new load.load_49_C bus1=bus_49.3 Phases=1 kv=157.6864406779661 kw=1688.871106446588 kvar=553.949722914481 vminpu=0.85
new load.load_50_A bus1=bus_50.1 Phases=1 kv=157.6864406779661 kw=1774.7937273784876 kvar=582.1323425801439 vminpu=0.85
new load.load_51_A bus1=bus_51.1 Phases=1 kv=157.6864406779661 kw=2094.5875946702536 kvar=687.0247310518432 vminpu=0.85
new load.load_52_B bus1=bus_52.2 Phases=1 kv=157.6864406779661 kw=784.2007142182193 kvar=257.2178342635759 vminpu=0.85
new load.load_52_C bus1=bus_52.3 Phases=1 kv=157.6864406779661 kw=1521.165165027767 kvar=498.94217412910757 vminpu=0.85
new load.load_53_B bus1=bus_53.2 Phases=1 kv=157.6864406779661 kw=598.5571194833727 kvar=196.32673519054626 vminpu=0.85
new load.load_53_C bus1=bus_53.3 Phases=1 kv=157.6864406779661 kw=988.4022765513234 kvar=324.19594670883413 vminpu=0.85
new load.load_54_B bus1=bus_54.2 Phases=1 kv=157.6864406779661 kw=2236.574096930329 kvar=733.5963037931479 vminpu=0.85
new load.load_54_C bus1=bus_54.3 Phases=1 kv=157.6864406779661 kw=44.73395522210763 kvar=14.672737312851304 vminpu=0.85
new load.load_55_B bus1=bus_55.2 Phases=1 kv=157.6864406779661 kw=532.4214648122363 kvar=174.63424045841353 vminpu=0.85
new load.load_55_C bus1=bus_55.3 Phases=1 kv=157.6864406779661 kw=1591.34428810106 kvar=521.9609264971477 vminpu=0.85
new load.load_56_B bus1=bus_56.2 Phases=1 kv=157.6864406779661 kw=1290.058277099731 kvar=423.1391148887118 vminpu=0.85
new load.load_56_C bus1=bus_56.3 Phases=1 kv=157.6864406779661 kw=591.1780924126244 kvar=193.90641431134082 vminpu=0.85
new load.load_57_A bus1=bus_57.1 Phases=1 kv=157.6864406779661 kw=1986.333068459621 kvar=651.5172464547558 vminpu=0.85
new load.load_58_B bus1=bus_58.2 Phases=1 kv=157.6864406779661 kw=1518.5991397777157 kvar=498.10051784709077 vminpu=0.85
new load.load_58_C bus1=bus_58.3 Phases=1 kv=157.6864406779661 kw=868.6660705221137 kvar=284.9224711312533 vminpu=0.85
new load.load_59_B bus1=bus_59.2 Phases=1 kv=157.6864406779661 kw=1150.5900353702775 kvar=377.39353160145106 vminpu=0.85
new load.load_59_C bus1=bus_59.3 Phases=1 kv=157.6864406779661 kw=1894.919030028223 kvar=621.5334418492572 vminpu=0.85
new load.load_60_C bus1=bus_60.3 Phases=1 kv=157.6864406779661 kw=2276.4102787332604 kvar=746.6625714245095 vminpu=0.85
new load.load_61_B bus1=bus_61.2 Phases=1 kv=157.6864406779661 kw=404.8650651607505 kvar=132.79574137272616 vminpu=0.85
new load.load_61_C bus1=bus_61.3 Phases=1 kv=157.6864406779661 kw=1193.7312234991382 kvar=391.54384130771734 vminpu=0.85
new load.load_62_B bus1=bus_62.2 Phases=1 kv=157.6864406779661 kw=986.9815947223876 kvar=323.72996306894316 vminpu=0.85
new load.load_62_C bus1=bus_62.3 Phases=1 kv=157.6864406779661 kw=190.49542042722277 kvar=62.48249790012907 vminpu=0.85
new load.load_63_B bus1=bus_63.2 Phases=1 kv=157.6864406779661 kw=1774.5186531547763 kvar=582.0421182347667 vminpu=0.85
new load.load_63_C bus1=bus_63.3 Phases=1 kv=157.6864406779661 kw=400.25645538432985 kvar=131.2841173660602 vminpu=0.85
new load.load_64_B bus1=bus_64.2 Phases=1 kv=157.6864406779661 kw=489.5823209120098 kvar=160.58300125913922 vminpu=0.85
new load.load_64_C bus1=bus_64.3 Phases=1 kv=157.6864406779661 kw=1673.1159275006917 kvar=548.7820242202268 vminpu=0.85
new load.load_65_B bus1=bus_65.2 Phases=1 kv=157.6864406779661 kw=1353.452018654806 kvar=443.93226211877635 vminpu=0.85
new load.load_65_C bus1=bus_65.3 Phases=1 kv=157.6864406779661 kw=851.707778914887 kvar=279.3601514840829 vminpu=0.85
new load.load_66_B bus1=bus_66.2 Phases=1 kv=157.6864406779661 kw=312.7218328517036 kvar=102.57276117535878 vminpu=0.85
new load.load_66_C bus1=bus_66.3 Phases=1 kv=157.6864406779661 kw=937.6038638824956 kvar=307.53406735345857 vminpu=0.85
new load.load_67_B bus1=bus_67.2 Phases=1 kv=157.6864406779661 kw=1090.0286851944022 kvar=357.52940874376395 vminpu=0.85
new load.load_67_C bus1=bus_67.3 Phases=1 kv=157.6864406779661 kw=947.473106758054 kvar=310.7711790166417 vminpu=0.85
new load.load_69_B bus1=bus_69.2 Phases=1 kv=157.6864406779661 kw=49.112019111506925 kvar=16.10874226857427 vminpu=0.85
new load.load_69_C bus1=bus_69.3 Phases=1 kv=157.6864406779661 kw=2288.1534670015003 kvar=750.5143371764922 vminpu=0.85
new load.load_70_C bus1=bus_70.3 Phases=1 kv=157.6864406779661 kw=2758.233291982507 kvar=904.7005197702624 vminpu=0.85
new load.load_71_B bus1=bus_71.2 Phases=1 kv=157.6864406779661 kw=1980.3856843804344 kvar=649.5665044767825 vminpu=0.85
new load.load_71_C bus1=bus_71.3 Phases=1 kv=157.6864406779661 kw=110.05567257951014 kvar=36.09826060607933 vminpu=0.85
new load.load_72_C bus1=bus_72.3 Phases=1 kv=157.6864406779661 kw=2406.13462377749 kvar=789.2121565990168 vminpu=0.85
new load.load_73_B bus1=bus_73.2 Phases=1 kv=157.6864406779661 kw=823.0863482030724 kvar=269.97232221060773 vminpu=0.85
new load.load_73_C bus1=bus_73.3 Phases=1 kv=157.6864406779661 kw=761.2243238970898 kvar=249.68157823824546 vminpu=0.85
new load.load_74_A bus1=bus_74.1 Phases=1 kv=157.6864406779661 kw=199.8913194835011 kvar=65.56435279058836 vminpu=0.85
new load.load_74_C bus1=bus_74.3 Phases=1 kv=157.6864406779661 kw=1845.7360481221383 kvar=605.4014237840614 vminpu=0.85
new load.load_75_A bus1=bus_75.1 Phases=1 kv=157.6864406779661 kw=1508.9817555181237 kvar=494.9460158099446 vminpu=0.85
new load.load_76_A bus1=bus_76.1 Phases=1 kv=157.6864406779661 kw=2020.4827210989697 kvar=662.7183325204621 vminpu=0.85
new load.load_77_A bus1=bus_77.1 Phases=1 kv=157.6864406779661 kw=2031.611308977316 kvar=666.3685093445597 vminpu=0.85
new load.load_78_A bus1=bus_78.1 Phases=1 kv=157.6864406779661 kw=1307.3820777351275 kvar=428.82132149712186 vminpu=0.85
new load.load_79_A bus1=bus_79.1 Phases=1 kv=157.6864406779661 kw=3392.718012355966 kvar=1112.8115080527568 vminpu=0.85
new load.load_80_B bus1=bus_80.2 Phases=1 kv=157.6864406779661 kw=1022.148484045588 kvar=335.2647027669529 vminpu=0.85
new load.load_80_C bus1=bus_80.3 Phases=1 kv=157.6864406779661 kw=1125.555341841074 kvar=369.1821521238723 vminpu=0.85
new load.load_81_A bus1=bus_81.1 Phases=1 kv=157.6864406779661 kw=2406.2324717776896 kvar=789.2442507430823 vminpu=0.85
new load.load_82_A bus1=bus_82.1 Phases=1 kv=157.6864406779661 kw=1819.498459738437 kvar=596.7954947942073 vminpu=0.85
new load.load_83_A bus1=bus_83.1 Phases=1 kv=157.6864406779661 kw=2746.409973727996 kvar=900.8224713827827 vminpu=0.85
new load.load_84_A bus1=bus_84.1 Phases=1 kv=157.6864406779661 kw=2329.555154395298 kvar=764.0940906416578 vminpu=0.85
new load.load_85_A bus1=bus_85.1 Phases=1 kv=157.6864406779661 kw=1818.1557441015311 kvar=596.3550840653022 vminpu=0.85
new load.load_86_A bus1=bus_86.1 Phases=1 kv=157.6864406779661 kw=2184.5138897017 kvar=716.5205558221577 vminpu=0.85
new load.load_87_A bus1=bus_87.1 Phases=1 kv=157.6864406779661 kw=2470.0689274195074 kvar=810.1826081935984 vminpu=0.85
new load.load_88_A bus1=bus_88.1 Phases=1 kv=157.6864406779661 kw=1494.1705404920183 kvar=490.08793728138204 vminpu=0.85
new load.load_89_A bus1=bus_89.1 Phases=1 kv=157.6864406779661 kw=2617.530492151157 kvar=858.5500014255796 vminpu=0.85
new load.load_90_A bus1=bus_90.1 Phases=1 kv=157.6864406779661 kw=2211.0612937934848 kvar=725.228104364263 vminpu=0.85
new load.load_91_A bus1=bus_91.1 Phases=1 kv=157.6864406779661 kw=1993.1276257494928 kvar=653.7458612458337 vminpu=0.85
new load.load_92_A bus1=bus_92.1 Phases=1 kv=157.6864406779661 kw=2489.9221384329485 kvar=816.6944614060071 vminpu=0.85
new load.load_93_A bus1=bus_93.1 Phases=1 kv=157.6864406779661 kw=2470.431851111586 kvar=810.3016471646004 vminpu=0.85
new load.load_94_A bus1=bus_94.1 Phases=1 kv=157.6864406779661 kw=1718.3995148547035 kvar=563.6350408723428 vminpu=0.85
new load.load_95_A bus1=bus_95.1 Phases=1 kv=157.6864406779661 kw=2493.799360074035 kvar=817.9661901042836 vminpu=0.85
new load.load_96_A bus1=bus_96.1 Phases=1 kv=157.6864406779661 kw=2057.0471009991743 kvar=674.7114491277292 vminpu=0.85
new load.load_97_A bus1=bus_97.1 Phases=1 kv=157.6864406779661 kw=1746.2586005785545 kvar=572.7728209897659 vminpu=0.85
new load.load_98_A bus1=bus_98.1 Phases=1 kv=157.6864406779661 kw=1839.3052580712997 kvar=603.2921246473863 vminpu=0.85
new load.load_99_A bus1=bus_99.1 Phases=1 kv=157.6864406779661 kw=2785.1502730570564 kvar=913.5292895627146 vminpu=0.85
new load.load_100_A bus1=bus_100.1 Phases=1 kv=157.6864406779661 kw=1685.426687807972 kvar=552.8199536010148 vminpu=0.85
new load.load_101_A bus1=bus_101.1 Phases=1 kv=157.6864406779661 kw=2692.445960891211 kvar=883.1222751723172 vminpu=0.85
new load.load_102_A bus1=bus_102.1 Phases=1 kv=157.6864406779661 kw=1540.3154503185008 kvar=505.2234677044683 vminpu=0.85
new load.load_103_A bus1=bus_103.1 Phases=1 kv=157.6864406779661 kw=2266.6414826879254 kvar=743.4584063216396 vminpu=0.85
new load.load_104_A bus1=bus_104.1 Phases=1 kv=157.6864406779661 kw=2933.2728150907765 kvar=962.1134833497747 vminpu=0.85
new load.load_105_A bus1=bus_105.1 Phases=1 kv=157.6864406779661 kw=2287.836877623241 kvar=750.4104958604231 vminpu=0.85
new load.load_106_A bus1=bus_106.1 Phases=1 kv=157.6864406779661 kw=2202.0833460610115 kvar=722.2833375080118 vminpu=0.85
new load.load_107_A bus1=bus_107.1 Phases=1 kv=157.6864406779661 kw=2223.9666034029656 kvar=729.4610459161728 vminpu=0.85
new load.load_108_A bus1=bus_108.1 Phases=1 kv=157.6864406779661 kw=2157.112818402277 kvar=707.5330044359469 vminpu=0.85
new load.load_109_A bus1=bus_109.1 Phases=1 kv=157.6864406779661 kw=1811.1874487694415 kvar=594.0694831963768 vminpu=0.85
new load.load_110_A bus1=bus_110.1 Phases=1 kv=157.6864406779661 kw=1920.7566695730125 kvar=630.0081876199481 vminpu=0.85
new load.load_111_A bus1=bus_111.1 Phases=1 kv=157.6864406779661 kw=1939.2770172428336 kvar=636.0828616556495 vminpu=0.85
new load.load_112_C bus1=bus_112.3 Phases=1 kv=157.6864406779661 kw=1989.9720716639383 kvar=652.7108395057718 vminpu=0.85
new load.load_113_C bus1=bus_113.3 Phases=1 kv=157.6864406779661 kw=2459.860100410709 kvar=806.8341129347126 vminpu=0.85
new load.load_114_C bus1=bus_114.3 Phases=1 kv=157.6864406779661 kw=2382.727314098921 kvar=781.5345590244461 vminpu=0.85
new load.load_115_A bus1=bus_115.1 Phases=1 kv=157.6864406779661 kw=1919.3867143745256 kvar=629.5588423148445 vminpu=0.85
new load.load_116_A bus1=bus_116.1 Phases=1 kv=157.6864406779661 kw=1914.6394921490944 kvar=628.001753424903 vminpu=0.85
new load.load_117_A bus1=bus_117.1 Phases=1 kv=157.6864406779661 kw=1558.0012843083216 kvar=511.0244212531295 vminpu=0.85
new load.load_117_C bus1=bus_117.3 Phases=1 kv=157.6864406779661 kw=745.2290409442223 kvar=244.43512542970493 vminpu=0.85

!---------------- SOLUTION ----------------

set controlmode=off
Set Voltagebases=[157.6864406779661]
calcv
Solve